LTspice 24.1.9 for Windows
Circuit: C:\Users\a037702\NotSynchronized\git\Design_of_1200W_LLC_DCDC\05_validations\02_emc\01_Conducted_Emissions_Test\simulations\CM_impact.net
Start Time: Tue Feb 17 10:48:33 2026
solver = Normal
Maximum thread count: 16
tnom = 27
temp = 27
method = trap
WARNING: Node n005 is floating.

.OP point found by inspection.
.step c_cm=1e-12
.step c_cm=1e-07
Total elapsed time: 0.063 seconds.

Files loaded:
C:\Users\a037702\NotSynchronized\git\Design_of_1200W_LLC_DCDC\05_validations\02_emc\01_Conducted_Emissions_Test\simulations\CM_impact.net

