LTspice 24.1.9 for Windows
Circuit: C:\Users\a037702\NotSynchronized\git\Design_of_1200W_LLC_DCDC\Draft2.net
Start Time: Tue Feb 17 10:40:16 2026
solver = Normal
Maximum thread count: 16
tnom = 27
temp = 27
method = trap
.OP point found by inspection.
.step cdiff=1e-12
.step cdiff=2.2e-07
.step cdiff=1.5e-06
Total elapsed time: 0.091 seconds.

Files loaded:
C:\Users\a037702\NotSynchronized\git\Design_of_1200W_LLC_DCDC\Draft2.net

