Questionable use of curly braces in ".model sir870adp vdmos(rg=3 vto=2.9 rd=3.2m rs=1.5m rb={m} kp=100 mtriode=1.85 cgdmax=1.4n cgdmin=70p cgs=2.9n cjo=3.6n m=.4 a=.7 vj=.7 lambda=20m is=3p ksubthres=.08 mfg=siliconix vds=100 ron=5.5m qg=53.5n)"
    Error: undefined symbol in: "[m]"
Circuit: * C:\Users\a037702\NotSynchronized\Personnel\GIT\Design_of_1200W_LLC_DCDC\03_hw_design\01_design_justification\02__Mosfets\02_simulation\Mosfet_Primary.asc

Direct Newton iteration for .op point succeeded.
.step freq=60000
.step freq=70000
.step freq=80000
.step freq=90000
.step freq=100000
.step freq=110000
.step freq=120000
.step freq=130000
.step freq=140000
.step freq=150000
.step freq=156000

Date: Tue Jul 01 14:36:29 2025
Total elapsed time: 4.375 seconds.

tnom = 27
temp = 27
method = modified trap
totiter = 7524
traniter = 7517
tranpoints = 2039
accept = 1701
rejected = 337
matrix size = 20
fillins = 9
solver = Normal
Matrix Compiler1: 1.47 KB object code size  0.6/0.3/[0.2]
Matrix Compiler2: 1.62 KB object code size  0.3/0.4/[0.2]


