LTspice 24.1.9 for Windows
Circuit: C:\Users\a037702\NotSynchronized\git\Design_of_1200W_LLC_DCDC\03_hw_design\01_design_justification\power_supp\simpleFlybackOKK_v4.net
Start Time: Fri Jan  2 20:53:03 2026
solver = Normal
Maximum thread count: 16
tnom = 27
temp = 27
method = trap
Direct Newton iteration for .op point succeeded.
Total elapsed time: 1.789 seconds.

Files loaded:
C:\Users\a037702\NotSynchronized\git\Design_of_1200W_LLC_DCDC\03_hw_design\01_design_justification\power_supp\simpleFlybackOKK_v4.net
C:\Users\a037702\AppData\Local\LTspice\lib\cmp\standard.dio

