LTspice 24.1.9 for Windows
Circuit: C:\Users\a037702\OneDrive - Alliance\12_personnel\05_GIT\Design_of_1200W_LLC_DCDC\03_hw_design\01_design_justification\01_llc_tank\02_simulation\02_Test_Lm_Lr_Cr\Ac_sim.net
Start Time: Sun Aug 31 19:17:59 2025
solver = Normal
Maximum thread count: 16
tnom = 27
temp = 27
method = trap
.OP point found by inspection.
.step x=0.1
.step x=0.2
.step x=0.4
.step x=0.6
.step x=0.8
.step x=1
Total elapsed time: 0.090 seconds.

Files loaded:
C:\Users\a037702\OneDrive - Alliance\12_personnel\05_GIT\Design_of_1200W_LLC_DCDC\03_hw_design\01_design_justification\01_llc_tank\02_simulation\02_Test_Lm_Lr_Cr\Ac_sim.net
C:\Users\a037702\OneDrive - Alliance\12_personnel\05_GIT\Design_of_1200W_LLC_DCDC\03_hw_design\01_design_justification\01_llc_tank\02_simulation\02_Test_Lm_Lr_Cr\params.txt

