LTspice 24.1.9 for Windows
Circuit: C:\Users\a037702\NotSynchronized\git\Design_of_1200W_LLC_DCDC\05_validations\08_Gain_and_LLC_Tank_charac\figs\Draft1.net
Start Time: Tue Mar  3 21:17:22 2026
solver = Normal
Maximum thread count: 16
tnom = 27
temp = 0
method = trap
Direct Newton iteration for .op point succeeded.
.step temp=0°
.step temp=20°
.step temp=40°
.step temp=60°
.step temp=80°
.step temp=100°
Total elapsed time: 0.433 seconds.

Files loaded:
C:\Users\a037702\NotSynchronized\git\Design_of_1200W_LLC_DCDC\05_validations\08_Gain_and_LLC_Tank_charac\figs\Draft1.net
C:\Users\a037702\AppData\Local\LTspice\lib\cmp\standard.dio

