LTspice 24.1.9 for Windows
Circuit: C:\Users\a037702\NotSynchronized\git\Design_of_1200W_LLC_DCDC\05_validations\03_safety\figs\Sim_Discharge.net
Start Time: Fri Mar  6 16:14:32 2026
solver = Normal
Maximum thread count: 16
tnom = 27
temp = 27
method = trap
Direct Newton iteration for .op point succeeded.
Total elapsed time: 0.059 seconds.

Files loaded:
C:\Users\a037702\NotSynchronized\git\Design_of_1200W_LLC_DCDC\05_validations\03_safety\figs\Sim_Discharge.net

