LTspice 24.1.9 for Windows
Circuit: C:\Users\a037702\NotSynchronized\git\Design_of_1200W_LLC_DCDC\03_hw_design\01_design_justification\power_supp\Schematic\Draft1.net
Start Time: Wed Jan  7 10:14:47 2026
solver = Normal
Maximum thread count: 16
tnom = 27
temp = 27
method = trap
Direct Newton iteration for .op point succeeded.
Total elapsed time: 0.074 seconds.

Files loaded:
C:\Users\a037702\NotSynchronized\git\Design_of_1200W_LLC_DCDC\03_hw_design\01_design_justification\power_supp\Schematic\Draft1.net
C:\Users\a037702\AppData\Local\LTspice\lib\cmp\standard.dio

