Questionable use of curly braces in ".model sir870adp vdmos(rg=3 vto=2.9 rd=3.2m rs=1.5m rb={m} kp=100 mtriode=1.85 cgdmax=1.4n cgdmin=70p cgs=2.9n cjo=3.6n m=.4 a=.7 vj=.7 lambda=20m is=3p ksubthres=.08 mfg=siliconix vds=100 ron=5.5m qg=53.5n)"
    Error: undefined symbol in: "[m]"
Circuit: * C:\Users\a037702\NotSynchronized\Personnel\GIT\Design_of_1200W_LLC_DCDC\03_hw_design\01_design_justification\01_llc_tank\02_simulation\03_Res_capacitor\Comparaison_Res_Capas_Archi.asc

Direct Newton iteration for .op point succeeded.
Changing Tseed to 2.92969e-012

Date: Tue Jul 01 14:04:20 2025
Total elapsed time: 1.997 seconds.

tnom = 27
temp = 27
method = modified trap
totiter = 6583
traniter = 6576
tranpoints = 1842
accept = 1591
rejected = 250
matrix size = 38
fillins = 20
solver = Normal
Matrix Compiler1: 3.05 KB object code size  3.4/1.8/[0.7]
Matrix Compiler2: 3.22 KB object code size  1.6/1.8/[0.6]


