LTspice 24.1.9 for Windows
Circuit: C:\Users\a037702\NotSynchronized\git\Design_of_1200W_LLC_DCDC\05_validations\06_Fly_Back\sim\Draft3.net
Start Time: Fri Jan  2 20:42:03 2026
solver = Normal
Maximum thread count: 16
tnom = 27
temp = 27
method = trap
Direct Newton iteration for .op point succeeded.
Total elapsed time: 0.697 seconds.
