LTspice 24.1.9 for Windows
Circuit: C:\Users\a037702\NotSynchronized\git\Design_of_1200W_LLC_DCDC\05_validations\04_driver_test\05_Driver_current\sim\Draft3.net
Start Time: Thu Jan  1 11:59:57 2026
solver = Normal
Maximum thread count: 16
tnom = 27
temp = 27
method = trap
Direct Newton iteration for .op point succeeded.
Total elapsed time: 0.070 seconds.

Files loaded:
C:\Users\a037702\NotSynchronized\git\Design_of_1200W_LLC_DCDC\05_validations\04_driver_test\05_Driver_current\sim\Draft3.net

